<routes>
        <vType id="typeWE" accel="2.5" decel="4.5" sigma="0.5" length="5" minGap="2.5" maxSpeed="18" guiShape="passenger" carFollow-Model="IDM"/>
        <vType id="typeWE_L" accel="2.5" decel="4.5" sigma="0.5" length="5" minGap="2.5" maxSpeed="18" guiShape="passenger" carFollow-Model="IDM"/>
        <vType id="typeWE_R" accel="2.5" decel="4.5" sigma="0.5" length="5" minGap="2.5" maxSpeed="18" guiShape="passenger" carFollow-Model="IDM"/>
        <vType id="typeCAV" accel="2.5" decel="4.5" sigma="0.5" length="5" minGap="2.5" maxSpeed="18" guiShape="passenger" carFollow-Model="CACC" tau="0.6"/>
        <vType id="typeCAV_left" accel="2.5" decel="4.5" sigma="0.5" length="5" minGap="2.5" maxSpeed="18" guiShape="passenger" carFollow-Model="CACC" tau="0.6"/>
        <vType id="typeCAV_R" accel="2.5" decel="4.5" sigma="0.5" length="5" minGap="2.5" maxSpeed="18" guiShape="passenger" carFollow-Model="CACC" tau="0.6"/>

        <route id="right" edges="1i 2o" />
        <route id="left" edges="2i 1o" />
        <route id="down" edges="4i 3o" />
        <route id="up" edges="3i 4o" />
        <route id="right_L" edges="1i 4o" />
        <route id="left_L" edges="2i 3o" />
        <route id="down_L" edges="4i 2o" />
        <route id="up_L" edges="3i 1o" />
        <route id="right_R" edges="1i 3o" />
        <route id="left_R" edges="2i 4o" />
        <route id="down_R" edges="4i 1o" />
        <route id="up_R" edges="3i 2o" />
    <vehicle id="right_0" type="typeWE" route="right" depart="0" departLane = "1" />
    <vehicle id="right_R_1" type="typeWE_R" route="right_R" depart="0" departLane = "0" />
    <vehicle id="down_R_2" type="typeWE_R" route="down_R" depart="0" departLane = "0" />
    <vehicle id="down_3" type="typeWE" route="down" depart="1" departLane = "1" />
    <vehicle id="right_4" type="typeWE" route="right" depart="5" departLane = "1" />
    <vehicle id="down_R_5" type="typeWE_R" route="down_R" depart="6" departLane = "0" />
    <vehicle id="right_6" type="typeWE" route="right" depart="7" departLane = "1" />
    <vehicle id="left_L_7" type="typeWE_L" route="left_L" depart="7" departLane = "2" />
    <vehicle id="right_L_8" type="typeWE_L" route="right_L" depart="9" departLane = "2" />
    <vehicle id="left_L_9" type="typeWE_L" route="left_L" depart="9" departLane = "2" />
    <vehicle id="down_R_10" type="typeWE_R" route="down_R" depart="9" departLane = "0" />
    <vehicle id="right_11" type="typeWE" route="right" depart="10" departLane = "1" />
    <vehicle id="down_12" type="typeWE" route="down" depart="13" departLane = "1" />
    <vehicle id="right_13" type="typeWE" route="right" depart="17" departLane = "1" />
    <vehicle id="down_14" type="typeWE" route="down" depart="19" departLane = "1" />
    <vehicle id="down_L_15" type="typeWE_L" route="down_L" depart="20" departLane = "2" />
    <vehicle id="left_16" type="typeWE" route="left" depart="22" departLane = "1" />
    <vehicle id="right_R_17" type="typeWE_R" route="right_R" depart="22" departLane = "0" />
    <vehicle id="down_R_18" type="typeWE_R" route="down_R" depart="24" departLane = "0" />
    <vehicle id="left_19" type="typeWE" route="left" depart="26" departLane = "1" />
    <vehicle id="left_20" type="typeWE" route="left" depart="28" departLane = "1" />
    <vehicle id="left_21" type="typeWE" route="left" depart="30" departLane = "1" />
    <vehicle id="down_R_22" type="typeWE_R" route="down_R" depart="31" departLane = "0" />
    <vehicle id="left_R_23" type="typeWE_R" route="left_R" depart="32" departLane = "0" />
    <vehicle id="down_24" type="typeWE" route="down" depart="33" departLane = "1" />
    <vehicle id="up_R_25" type="typeWE_R" route="up_R" depart="36" departLane = "0" />
    <vehicle id="up_L_26" type="typeWE_L" route="up_L" depart="37" departLane = "2" />
    <vehicle id="left_L_27" type="typeWE_L" route="left_L" depart="38" departLane = "2" />
    <vehicle id="right_R_28" type="typeWE_R" route="right_R" depart="38" departLane = "0" />
    <vehicle id="left_R_29" type="typeWE_R" route="left_R" depart="39" departLane = "0" />
    <vehicle id="left_L_30" type="typeWE_L" route="left_L" depart="40" departLane = "2" />
    <vehicle id="right_R_31" type="typeWE_R" route="right_R" depart="41" departLane = "0" />
    <vehicle id="down_32" type="typeWE" route="down" depart="42" departLane = "1" />
    <vehicle id="down_33" type="typeWE" route="down" depart="43" departLane = "1" />
    <vehicle id="up_34" type="typeWE" route="up" depart="45" departLane = "1"  />
    <vehicle id="right_R_35" type="typeWE_R" route="right_R" depart="45" departLane = "0" />
    <vehicle id="down_R_36" type="typeWE_R" route="down_R" depart="48" departLane = "0" />
    <vehicle id="down_37" type="typeWE" route="down" depart="50" departLane = "1" />
    <vehicle id="left_L_38" type="typeWE_L" route="left_L" depart="52" departLane = "2" />
    <vehicle id="up_39" type="typeWE" route="up" depart="55" departLane = "1"  />
    <vehicle id="right_40" type="typeWE" route="right" depart="60" departLane = "1" />
    <vehicle id="right_41" type="typeWE" route="right" depart="63" departLane = "1" />
    <vehicle id="down_R_42" type="typeWE_R" route="down_R" depart="65" departLane = "0" />
    <vehicle id="down_43" type="typeWE" route="down" depart="66" departLane = "1" />
    <vehicle id="right_44" type="typeWE" route="right" depart="68" departLane = "1" />
    <vehicle id="right_45" type="typeWE" route="right" depart="70" departLane = "1" />
    <vehicle id="up_R_46" type="typeWE_R" route="up_R" depart="73" departLane = "0" />
    <vehicle id="left_R_47" type="typeWE_R" route="left_R" depart="74" departLane = "0" />
    <vehicle id="up_48" type="typeWE" route="up" depart="75" departLane = "1"  />
    <vehicle id="down_49" type="typeWE" route="down" depart="77" departLane = "1" />
    <vehicle id="left_50" type="typeWE" route="left" depart="78" departLane = "1" />
    <vehicle id="right_51" type="typeWE" route="right" depart="79" departLane = "1" />
    <vehicle id="down_L_52" type="typeWE_L" route="down_L" depart="79" departLane = "2" />
    <vehicle id="down_R_53" type="typeWE_R" route="down_R" depart="80" departLane = "0" />
    <vehicle id="left_54" type="typeWE" route="left" depart="81" departLane = "1" />
    <vehicle id="down_55" type="typeWE" route="down" depart="84" departLane = "1" />
    <vehicle id="left_R_56" type="typeWE_R" route="left_R" depart="86" departLane = "0" />
    <vehicle id="down_57" type="typeWE" route="down" depart="87" departLane = "1" />
    <vehicle id="right_R_58" type="typeWE_R" route="right_R" depart="87" departLane = "0" />
    <vehicle id="down_59" type="typeWE" route="down" depart="88" departLane = "1" />
    <vehicle id="down_L_60" type="typeWE_L" route="down_L" depart="89" departLane = "2" />
    <vehicle id="left_R_61" type="typeWE_R" route="left_R" depart="89" departLane = "0" />
    <vehicle id="right_62" type="typeWE" route="right" depart="90" departLane = "1" />
    <vehicle id="down_R_63" type="typeWE_R" route="down_R" depart="90" departLane = "0" />
    <vehicle id="left_L_64" type="typeWE_L" route="left_L" depart="91" departLane = "2" />
    <vehicle id="down_65" type="typeWE" route="down" depart="95" departLane = "1" />
    <vehicle id="right_66" type="typeWE" route="right" depart="105" departLane = "1" />
    <vehicle id="up_67" type="typeWE" route="up" depart="106" departLane = "1"  />
    <vehicle id="right_L_68" type="typeWE_L" route="right_L" depart="106" departLane = "2" />
    <vehicle id="down_69" type="typeWE" route="down" depart="107" departLane = "1" />
    <vehicle id="down_70" type="typeWE" route="down" depart="108" departLane = "1" />
    <vehicle id="right_L_71" type="typeWE_L" route="right_L" depart="108" departLane = "2" />
    <vehicle id="left_72" type="typeWE" route="left" depart="109" departLane = "1" />
    <vehicle id="up_L_73" type="typeWE_L" route="up_L" depart="109" departLane = "2" />
    <vehicle id="left_74" type="typeWE" route="left" depart="111" departLane = "1" />
    <vehicle id="right_L_75" type="typeWE_L" route="right_L" depart="111" departLane = "2" />
    <vehicle id="down_L_76" type="typeWE_L" route="down_L" depart="114" departLane = "2" />
    <vehicle id="down_R_77" type="typeWE_R" route="down_R" depart="115" departLane = "0" />
    <vehicle id="up_R_78" type="typeWE_R" route="up_R" depart="119" departLane = "0" />
    <vehicle id="up_79" type="typeWE" route="up" depart="122" departLane = "1"  />
    <vehicle id="up_80" type="typeWE" route="up" depart="124" departLane = "1"  />
    <vehicle id="left_81" type="typeWE" route="left" depart="125" departLane = "1" />
    <vehicle id="down_R_82" type="typeWE_R" route="down_R" depart="127" departLane = "0" />
    <vehicle id="left_83" type="typeWE" route="left" depart="128" departLane = "1" />
    <vehicle id="up_L_84" type="typeWE_L" route="up_L" depart="132" departLane = "2" />
    <vehicle id="right_85" type="typeWE" route="right" depart="134" departLane = "1" />
    <vehicle id="down_R_86" type="typeWE_R" route="down_R" depart="134" departLane = "0" />
    <vehicle id="down_87" type="typeWE" route="down" depart="139" departLane = "1" />
    <vehicle id="down_L_88" type="typeWE_L" route="down_L" depart="139" departLane = "2" />
    <vehicle id="up_L_89" type="typeWE_L" route="up_L" depart="141" departLane = "2" />
    <vehicle id="up_R_90" type="typeWE_R" route="up_R" depart="144" departLane = "0" />
    <vehicle id="right_91" type="typeWE" route="right" depart="145" departLane = "1" />
    <vehicle id="right_92" type="typeWE" route="right" depart="147" departLane = "1" />
    <vehicle id="right_L_93" type="typeWE_L" route="right_L" depart="149" departLane = "2" />
    <vehicle id="left_R_94" type="typeWE_R" route="left_R" depart="151" departLane = "0" />
    <vehicle id="up_95" type="typeWE" route="up" depart="153" departLane = "1"  />
    <vehicle id="right_96" type="typeWE" route="right" depart="153" departLane = "1" />
    <vehicle id="left_97" type="typeWE" route="left" depart="153" departLane = "1" />
    <vehicle id="down_L_98" type="typeWE_L" route="down_L" depart="153" departLane = "2" />
    <vehicle id="left_L_99" type="typeWE_L" route="left_L" depart="158" departLane = "2" />
    <vehicle id="down_R_100" type="typeWE_R" route="down_R" depart="162" departLane = "0" />
    <vehicle id="left_L_101" type="typeWE_L" route="left_L" depart="163" departLane = "2" />
    <vehicle id="up_102" type="typeWE" route="up" depart="164" departLane = "1"  />
    <vehicle id="right_L_103" type="typeWE_L" route="right_L" depart="164" departLane = "2" />
    <vehicle id="down_L_104" type="typeWE_L" route="down_L" depart="166" departLane = "2" />
    <vehicle id="left_105" type="typeWE" route="left" depart="167" departLane = "1" />
    <vehicle id="down_106" type="typeWE" route="down" depart="170" departLane = "1" />
    <vehicle id="down_R_107" type="typeWE_R" route="down_R" depart="171" departLane = "0" />
    <vehicle id="left_L_108" type="typeWE_L" route="left_L" depart="172" departLane = "2" />
    <vehicle id="left_109" type="typeWE" route="left" depart="174" departLane = "1" />
    <vehicle id="down_L_110" type="typeWE_L" route="down_L" depart="180" departLane = "2" />
    <vehicle id="left_L_111" type="typeWE_L" route="left_L" depart="181" departLane = "2" />
    <vehicle id="right_112" type="typeWE" route="right" depart="184" departLane = "1" />
    <vehicle id="up_113" type="typeWE" route="up" depart="188" departLane = "1"  />
    <vehicle id="right_114" type="typeWE" route="right" depart="188" departLane = "1" />
    <vehicle id="down_R_115" type="typeWE_R" route="down_R" depart="188" departLane = "0" />
    <vehicle id="up_116" type="typeWE" route="up" depart="190" departLane = "1"  />
    <vehicle id="right_117" type="typeWE" route="right" depart="195" departLane = "1" />
    <vehicle id="down_L_118" type="typeWE_L" route="down_L" depart="195" departLane = "2" />
    <vehicle id="down_L_119" type="typeWE_L" route="down_L" depart="196" departLane = "2" />
    <vehicle id="up_120" type="typeWE" route="up" depart="197" departLane = "1"  />
    <vehicle id="down_L_121" type="typeWE_L" route="down_L" depart="198" departLane = "2" />
    <vehicle id="up_L_122" type="typeWE_L" route="up_L" depart="198" departLane = "2" />
    <vehicle id="down_123" type="typeWE" route="down" depart="199" departLane = "1" />
    <vehicle id="left_124" type="typeWE" route="left" depart="200" departLane = "1" />
    <vehicle id="left_125" type="typeWE" route="left" depart="204" departLane = "1" />
    <vehicle id="down_126" type="typeWE" route="down" depart="204" departLane = "1" />
    <vehicle id="left_127" type="typeWE" route="left" depart="206" departLane = "1" />
    <vehicle id="up_L_128" type="typeWE_L" route="up_L" depart="207" departLane = "2" />
    <vehicle id="up_129" type="typeWE" route="up" depart="208" departLane = "1"  />
    <vehicle id="right_130" type="typeWE" route="right" depart="208" departLane = "1" />
    <vehicle id="down_131" type="typeWE" route="down" depart="210" departLane = "1" />
    <vehicle id="down_132" type="typeWE" route="down" depart="211" departLane = "1" />
    <vehicle id="left_133" type="typeWE" route="left" depart="212" departLane = "1" />
    <vehicle id="right_R_134" type="typeWE_R" route="right_R" depart="212" departLane = "0" />
    <vehicle id="left_135" type="typeWE" route="left" depart="213" departLane = "1" />
    <vehicle id="down_136" type="typeWE" route="down" depart="213" departLane = "1" />
    <vehicle id="right_137" type="typeWE" route="right" depart="216" departLane = "1" />
    <vehicle id="right_L_138" type="typeWE_L" route="right_L" depart="216" departLane = "2" />
    <vehicle id="right_139" type="typeWE" route="right" depart="217" departLane = "1" />
    <vehicle id="right_R_140" type="typeWE_R" route="right_R" depart="217" departLane = "0" />
    <vehicle id="left_L_141" type="typeWE_L" route="left_L" depart="218" departLane = "2" />
    <vehicle id="up_142" type="typeWE" route="up" depart="219" departLane = "1"  />
    <vehicle id="right_L_143" type="typeWE_L" route="right_L" depart="219" departLane = "2" />
    <vehicle id="left_144" type="typeWE" route="left" depart="222" departLane = "1" />
    <vehicle id="up_145" type="typeWE" route="up" depart="224" departLane = "1"  />
    <vehicle id="right_146" type="typeWE" route="right" depart="225" departLane = "1" />
    <vehicle id="right_R_147" type="typeWE_R" route="right_R" depart="225" departLane = "0" />
    <vehicle id="right_148" type="typeWE" route="right" depart="230" departLane = "1" />
    <vehicle id="left_149" type="typeWE" route="left" depart="230" departLane = "1" />
    <vehicle id="left_150" type="typeWE" route="left" depart="231" departLane = "1" />
    <vehicle id="down_151" type="typeWE" route="down" depart="232" departLane = "1" />
    <vehicle id="down_152" type="typeWE" route="down" depart="233" departLane = "1" />
    <vehicle id="up_R_153" type="typeWE_R" route="up_R" depart="233" departLane = "0" />
    <vehicle id="right_154" type="typeWE" route="right" depart="234" departLane = "1" />
    <vehicle id="down_155" type="typeWE" route="down" depart="235" departLane = "1" />
    <vehicle id="down_L_156" type="typeWE_L" route="down_L" depart="238" departLane = "2" />
    <vehicle id="up_157" type="typeWE" route="up" depart="241" departLane = "1"  />
    <vehicle id="left_L_158" type="typeWE_L" route="left_L" depart="241" departLane = "2" />
    <vehicle id="down_R_159" type="typeWE_R" route="down_R" depart="243" departLane = "0" />
    <vehicle id="down_R_160" type="typeWE_R" route="down_R" depart="244" departLane = "0" />
    <vehicle id="left_L_161" type="typeWE_L" route="left_L" depart="246" departLane = "2" />
    <vehicle id="right_R_162" type="typeWE_R" route="right_R" depart="246" departLane = "0" />
    <vehicle id="up_L_163" type="typeWE_L" route="up_L" depart="246" departLane = "2" />
    <vehicle id="down_L_164" type="typeWE_L" route="down_L" depart="250" departLane = "2" />
    <vehicle id="right_165" type="typeWE" route="right" depart="254" departLane = "1" />
    <vehicle id="up_166" type="typeWE" route="up" depart="255" departLane = "1"  />
    <vehicle id="left_167" type="typeWE" route="left" depart="256" departLane = "1" />
    <vehicle id="up_168" type="typeWE" route="up" depart="259" departLane = "1"  />
    <vehicle id="left_169" type="typeWE" route="left" depart="259" departLane = "1" />
    <vehicle id="right_L_170" type="typeWE_L" route="right_L" depart="259" departLane = "2" />
    <vehicle id="up_171" type="typeWE" route="up" depart="262" departLane = "1"  />
    <vehicle id="right_172" type="typeWE" route="right" depart="263" departLane = "1" />
    <vehicle id="down_173" type="typeWE" route="down" depart="266" departLane = "1" />
    <vehicle id="down_R_174" type="typeWE_R" route="down_R" depart="266" departLane = "0" />
    <vehicle id="down_L_175" type="typeWE_L" route="down_L" depart="268" departLane = "2" />
    <vehicle id="down_176" type="typeWE" route="down" depart="269" departLane = "1" />
    <vehicle id="left_L_177" type="typeWE_L" route="left_L" depart="270" departLane = "2" />
    <vehicle id="left_178" type="typeWE" route="left" depart="271" departLane = "1" />
    <vehicle id="down_L_179" type="typeWE_L" route="down_L" depart="274" departLane = "2" />
    <vehicle id="up_180" type="typeWE" route="up" depart="279" departLane = "1"  />
    <vehicle id="left_L_181" type="typeWE_L" route="left_L" depart="281" departLane = "2" />
    <vehicle id="right_182" type="typeWE" route="right" depart="286" departLane = "1" />
    <vehicle id="down_L_183" type="typeWE_L" route="down_L" depart="287" departLane = "2" />
    <vehicle id="right_184" type="typeWE" route="right" depart="288" departLane = "1" />
    <vehicle id="left_185" type="typeWE" route="left" depart="290" departLane = "1" />
    <vehicle id="right_186" type="typeWE" route="right" depart="291" departLane = "1" />
    <vehicle id="down_R_187" type="typeWE_R" route="down_R" depart="292" departLane = "0" />
    <vehicle id="right_188" type="typeWE" route="right" depart="295" departLane = "1" />
    <vehicle id="right_189" type="typeWE" route="right" depart="296" departLane = "1" />
    <vehicle id="up_L_190" type="typeWE_L" route="up_L" depart="297" departLane = "2" />
    <vehicle id="up_R_191" type="typeWE_R" route="up_R" depart="297" departLane = "0" />
    <vehicle id="down_R_192" type="typeWE_R" route="down_R" depart="300" departLane = "0" />
    <vehicle id="right_L_193" type="typeWE_L" route="right_L" depart="301" departLane = "2" />
    <vehicle id="left_R_194" type="typeWE_R" route="left_R" depart="304" departLane = "0" />
    <vehicle id="up_195" type="typeWE" route="up" depart="305" departLane = "1"  />
    <vehicle id="down_L_196" type="typeWE_L" route="down_L" depart="305" departLane = "2" />
    <vehicle id="down_197" type="typeWE" route="down" depart="307" departLane = "1" />
    <vehicle id="right_198" type="typeWE" route="right" depart="308" departLane = "1" />
    <vehicle id="down_R_199" type="typeWE_R" route="down_R" depart="308" departLane = "0" />
    <vehicle id="right_R_200" type="typeWE_R" route="right_R" depart="310" departLane = "0" />
    <vehicle id="left_R_201" type="typeWE_R" route="left_R" depart="313" departLane = "0" />
    <vehicle id="up_202" type="typeWE" route="up" depart="314" departLane = "1"  />
    <vehicle id="right_203" type="typeWE" route="right" depart="314" departLane = "1" />
    <vehicle id="left_204" type="typeWE" route="left" depart="315" departLane = "1" />
    <vehicle id="right_R_205" type="typeWE_R" route="right_R" depart="315" departLane = "0" />
    <vehicle id="down_206" type="typeWE" route="down" depart="316" departLane = "1" />
    <vehicle id="down_207" type="typeWE" route="down" depart="317" departLane = "1" />
    <vehicle id="right_R_208" type="typeWE_R" route="right_R" depart="318" departLane = "0" />
    <vehicle id="right_L_209" type="typeWE_L" route="right_L" depart="319" departLane = "2" />
    <vehicle id="down_210" type="typeWE" route="down" depart="321" departLane = "1" />
    <vehicle id="down_R_211" type="typeWE_R" route="down_R" depart="322" departLane = "0" />
    <vehicle id="left_R_212" type="typeWE_R" route="left_R" depart="323" departLane = "0" />
    <vehicle id="right_213" type="typeWE" route="right" depart="325" departLane = "1" />
    <vehicle id="down_R_214" type="typeWE_R" route="down_R" depart="327" departLane = "0" />
    <vehicle id="up_R_215" type="typeWE_R" route="up_R" depart="330" departLane = "0" />
    <vehicle id="down_216" type="typeWE" route="down" depart="331" departLane = "1" />
    <vehicle id="right_R_217" type="typeWE_R" route="right_R" depart="331" departLane = "0" />
    <vehicle id="left_R_218" type="typeWE_R" route="left_R" depart="332" departLane = "0" />
    <vehicle id="down_R_219" type="typeWE_R" route="down_R" depart="334" departLane = "0" />
    <vehicle id="right_220" type="typeWE" route="right" depart="335" departLane = "1" />
    <vehicle id="down_221" type="typeWE" route="down" depart="335" departLane = "1" />
    <vehicle id="left_L_222" type="typeWE_L" route="left_L" depart="335" departLane = "2" />
    <vehicle id="left_R_223" type="typeWE_R" route="left_R" depart="337" departLane = "0" />
    <vehicle id="down_224" type="typeWE" route="down" depart="339" departLane = "1" />
    <vehicle id="down_225" type="typeWE" route="down" depart="340" departLane = "1" />
    <vehicle id="right_226" type="typeWE" route="right" depart="342" departLane = "1" />
    <vehicle id="left_227" type="typeWE" route="left" depart="342" departLane = "1" />
    <vehicle id="up_228" type="typeWE" route="up" depart="343" departLane = "1"  />
    <vehicle id="left_229" type="typeWE" route="left" depart="345" departLane = "1" />
    <vehicle id="left_L_230" type="typeWE_L" route="left_L" depart="345" departLane = "2" />
    <vehicle id="left_R_231" type="typeWE_R" route="left_R" depart="345" departLane = "0" />
    <vehicle id="right_232" type="typeWE" route="right" depart="347" departLane = "1" />
    <vehicle id="down_233" type="typeWE" route="down" depart="347" departLane = "1" />
    <vehicle id="down_234" type="typeWE" route="down" depart="348" departLane = "1" />
    <vehicle id="left_L_235" type="typeWE_L" route="left_L" depart="353" departLane = "2" />
    <vehicle id="up_236" type="typeWE" route="up" depart="354" departLane = "1"  />
    <vehicle id="down_R_237" type="typeWE_R" route="down_R" depart="355" departLane = "0" />
    <vehicle id="down_L_238" type="typeWE_L" route="down_L" depart="356" departLane = "2" />
    <vehicle id="down_R_239" type="typeWE_R" route="down_R" depart="356" departLane = "0" />
    <vehicle id="right_240" type="typeWE" route="right" depart="357" departLane = "1" />
    <vehicle id="right_241" type="typeWE" route="right" depart="358" departLane = "1" />
    <vehicle id="down_242" type="typeWE" route="down" depart="359" departLane = "1" />
    <vehicle id="right_R_243" type="typeWE_R" route="right_R" depart="359" departLane = "0" />
    <vehicle id="right_244" type="typeWE" route="right" depart="360" departLane = "1" />
    <vehicle id="down_L_245" type="typeWE_L" route="down_L" depart="360" departLane = "2" />
    <vehicle id="up_L_246" type="typeWE_L" route="up_L" depart="360" departLane = "2" />
    <vehicle id="right_247" type="typeWE" route="right" depart="361" departLane = "1" />
    <vehicle id="down_R_248" type="typeWE_R" route="down_R" depart="361" departLane = "0" />
    <vehicle id="right_L_249" type="typeWE_L" route="right_L" depart="362" departLane = "2" />
    <vehicle id="left_L_250" type="typeWE_L" route="left_L" depart="362" departLane = "2" />
    <vehicle id="up_L_251" type="typeWE_L" route="up_L" depart="362" departLane = "2" />
    <vehicle id="down_252" type="typeWE" route="down" depart="363" departLane = "1" />
    <vehicle id="down_R_253" type="typeWE_R" route="down_R" depart="363" departLane = "0" />
    <vehicle id="right_254" type="typeWE" route="right" depart="365" departLane = "1" />
    <vehicle id="right_255" type="typeWE" route="right" depart="367" departLane = "1" />
    <vehicle id="down_L_256" type="typeWE_L" route="down_L" depart="370" departLane = "2" />
    <vehicle id="right_R_257" type="typeWE_R" route="right_R" depart="370" departLane = "0" />
    <vehicle id="up_258" type="typeWE" route="up" depart="371" departLane = "1"  />
    <vehicle id="right_L_259" type="typeWE_L" route="right_L" depart="373" departLane = "2" />
    <vehicle id="right_260" type="typeWE" route="right" depart="374" departLane = "1" />
    <vehicle id="right_L_261" type="typeWE_L" route="right_L" depart="378" departLane = "2" />
    <vehicle id="right_L_262" type="typeWE_L" route="right_L" depart="379" departLane = "2" />
    <vehicle id="down_L_263" type="typeWE_L" route="down_L" depart="379" departLane = "2" />
    <vehicle id="down_264" type="typeWE" route="down" depart="381" departLane = "1" />
    <vehicle id="up_R_265" type="typeWE_R" route="up_R" depart="383" departLane = "0" />
    <vehicle id="right_266" type="typeWE" route="right" depart="384" departLane = "1" />
    <vehicle id="right_R_267" type="typeWE_R" route="right_R" depart="384" departLane = "0" />
    <vehicle id="right_268" type="typeWE" route="right" depart="385" departLane = "1" />
    <vehicle id="right_L_269" type="typeWE_L" route="right_L" depart="385" departLane = "2" />
    <vehicle id="right_R_270" type="typeWE_R" route="right_R" depart="387" departLane = "0" />
    <vehicle id="right_271" type="typeWE" route="right" depart="389" departLane = "1" />
    <vehicle id="right_L_272" type="typeWE_L" route="right_L" depart="389" departLane = "2" />
    <vehicle id="down_R_273" type="typeWE_R" route="down_R" depart="390" departLane = "0" />
    <vehicle id="left_274" type="typeWE" route="left" depart="391" departLane = "1" />
    <vehicle id="down_275" type="typeWE" route="down" depart="392" departLane = "1" />
    <vehicle id="down_L_276" type="typeWE_L" route="down_L" depart="396" departLane = "2" />
    <vehicle id="right_277" type="typeWE" route="right" depart="397" departLane = "1" />
    <vehicle id="right_R_278" type="typeWE_R" route="right_R" depart="400" departLane = "0" />
    <vehicle id="up_R_279" type="typeWE_R" route="up_R" depart="401" departLane = "0" />
    <vehicle id="right_280" type="typeWE" route="right" depart="402" departLane = "1" />
    <vehicle id="down_281" type="typeWE" route="down" depart="402" departLane = "1" />
    <vehicle id="right_282" type="typeWE" route="right" depart="404" departLane = "1" />
    <vehicle id="right_283" type="typeWE" route="right" depart="407" departLane = "1" />
    <vehicle id="down_R_284" type="typeWE_R" route="down_R" depart="407" departLane = "0" />
    <vehicle id="right_R_285" type="typeWE_R" route="right_R" depart="408" departLane = "0" />
    <vehicle id="left_286" type="typeWE" route="left" depart="409" departLane = "1" />
    <vehicle id="up_287" type="typeWE" route="up" depart="410" departLane = "1"  />
    <vehicle id="left_288" type="typeWE" route="left" depart="413" departLane = "1" />
    <vehicle id="down_L_289" type="typeWE_L" route="down_L" depart="413" departLane = "2" />
    <vehicle id="right_L_290" type="typeWE_L" route="right_L" depart="415" departLane = "2" />
    <vehicle id="up_L_291" type="typeWE_L" route="up_L" depart="415" departLane = "2" />
    <vehicle id="right_292" type="typeWE" route="right" depart="418" departLane = "1" />
    <vehicle id="down_293" type="typeWE" route="down" depart="418" departLane = "1" />
    <vehicle id="left_294" type="typeWE" route="left" depart="421" departLane = "1" />
    <vehicle id="down_L_295" type="typeWE_L" route="down_L" depart="424" departLane = "2" />
    <vehicle id="left_296" type="typeWE" route="left" depart="426" departLane = "1" />
    <vehicle id="right_297" type="typeWE" route="right" depart="428" departLane = "1" />
    <vehicle id="down_L_298" type="typeWE_L" route="down_L" depart="428" departLane = "2" />
    <vehicle id="up_L_299" type="typeWE_L" route="up_L" depart="428" departLane = "2" />
    <vehicle id="up_R_300" type="typeWE_R" route="up_R" depart="428" departLane = "0" />
    <vehicle id="right_301" type="typeWE" route="right" depart="430" departLane = "1" />
    <vehicle id="down_L_302" type="typeWE_L" route="down_L" depart="430" departLane = "2" />
    <vehicle id="up_303" type="typeWE" route="up" depart="432" departLane = "1"  />
    <vehicle id="up_L_304" type="typeWE_L" route="up_L" depart="437" departLane = "2" />
    <vehicle id="left_305" type="typeWE" route="left" depart="438" departLane = "1" />
    <vehicle id="left_R_306" type="typeWE_R" route="left_R" depart="438" departLane = "0" />
    <vehicle id="right_307" type="typeWE" route="right" depart="439" departLane = "1" />
    <vehicle id="left_L_308" type="typeWE_L" route="left_L" depart="439" departLane = "2" />
    <vehicle id="left_309" type="typeWE" route="left" depart="440" departLane = "1" />
    <vehicle id="down_310" type="typeWE" route="down" depart="440" departLane = "1" />
    <vehicle id="down_311" type="typeWE" route="down" depart="441" departLane = "1" />
    <vehicle id="up_312" type="typeWE" route="up" depart="443" departLane = "1"  />
    <vehicle id="up_313" type="typeWE" route="up" depart="444" departLane = "1"  />
    <vehicle id="right_314" type="typeWE" route="right" depart="444" departLane = "1" />