<?xml version="1.0" encoding="UTF-8"?>

<!-- generated on 2022-11-04 15:21:38 by Eclipse SUMO netedit Version 1.11.0
<configuration xmlns:xsi="http://www.w3.org/2001/XMLSchema-instance" xsi:noNamespaceSchemaLocation="http://sumo.dlr.de/xsd/netconvertConfiguration.xsd">

    <input>
        <sumo-net-file value="C:\Users\rdosw\Documents\SUMO\Eco-TOps\Data2\cross.net.xml"/>
    </input>

    <output>
        <output-file value="C:\Users\rdosw\Documents\SUMO\Eco-TOps\Data2\cross.net.xml"/>
    </output>

    <processing>
        <geometry.min-radius.fix.railways value="false"/>
        <geometry.max-grade.fix value="false"/>
        <offset.disable-normalization value="true"/>
        <lefthand value="false"/>
    </processing>

    <junctions>
        <no-turnarounds value="true"/>
        <junctions.corner-detail value="0"/>
        <junctions.limit-turn-speed value="-1"/>
        <rectangular-lane-cut value="false"/>
    </junctions>

    <pedestrian>
        <walkingareas value="false"/>
    </pedestrian>

    <report>
        <aggregate-warnings value="5"/>
    </report>

</configuration>
-->

<additional xmlns:xsi="http://www.w3.org/2001/XMLSchema-instance" xsi:noNamespaceSchemaLocation="http://sumo.dlr.de/xsd/additional_file.xsd">
    <tlLogic id="0" type="static" programID="0" offset="0">
        <phase duration="15" state="rrrrgGGrrrrrrgGGrr"/>
        <phase duration="4" state="rrrrgyyrrrrrrgyyrr"/>
        <phase duration="8" state="grrrrrrGgrrrrrrrGG"/>
        <phase duration="4" state="yrrrrrryyrrrrrrryy"/>
        <phase duration="2" state="rrrrrrrrrrrrrrrrrr"/>
        <phase duration="15" state="gGGrrrrrgGGrrrrrrr"/>
        <phase duration="4" state="gyyrrrrrgyyrrrrrrr"/>
        <phase duration="8" state="rrrGgrrrrrrGGgrrrr"/>
        <phase duration="4" state="rrryyrrrrrryyyrrrr"/>
        <phase duration="2" state="rrrrrrrrrrrrrrrrrr"/>
    </tlLogic>
</additional>
